Version 4
SHEET 1 880 680
WIRE -48 80 -96 80
WIRE 64 80 32 80
WIRE 160 80 64 80
WIRE 464 80 240 80
WIRE -96 208 -96 80
WIRE 64 240 64 80
WIRE 96 240 64 240
WIRE 464 256 464 80
WIRE 464 256 160 256
WIRE 96 272 64 272
WIRE 464 288 464 256
WIRE -96 416 -96 288
WIRE 64 416 64 272
WIRE 464 416 464 368
FLAG 464 416 0
FLAG 64 416 0
FLAG -96 416 0
FLAG 464 256 V2
SYMBOL res -64 96 R270
WINDOW 0 32 56 VTop 2
WINDOW 3 0 56 VBottom 2
SYMATTR InstName R1
SYMATTR Value 10K
SYMBOL res 144 96 R270
WINDOW 0 32 56 VTop 2
WINDOW 3 0 56 VBottom 2
SYMATTR InstName R2
SYMATTR Value 30MEG
SYMBOL res 448 272 R0
SYMATTR InstName R3
SYMATTR Value 10Meg
SYMBOL voltage -96 192 R0
SYMATTR InstName V1
SYMATTR Value 1
SYMBOL Opamps\\opamp 128 192 R0
SYMATTR InstName U1
TEXT 88 -16 Left 2 !.inc opamp.sub
TEXT 96 -72 Left 2 !.tran 0 0.5 0 0.01
